LAMMPS (28 Mar 2023 - Update 1)
# LAMMPS input script using real units

units real
atom_style charge
boundary p p p

# Create lattice (Note: Adjust the lattice parameters as necessary)
lattice custom 5.411 basis 0.00 0.00 0.00                      basis 0.00 0.50 0.50                      basis 0.50 0.00 0.50                      basis 0.50 0.50 0.00                      basis 0.25 0.75 0.75                      basis 0.75 0.25 0.25                      basis 0.25 0.25 0.25                      basis 0.75 0.75 0.75                      basis 0.75 0.75 0.25                      basis 0.25 0.25 0.75                      basis 0.75 0.25 0.75                      basis 0.25 0.75 0.25
Lattice spacing in x,y,z = 5.411 5.411 5.411
region box block 0 8 0 8 0 8
create_box 2 box
Created orthogonal box = (0 0 0) to (43.288 43.288 43.288)
create_atoms 1 box basis 1 1 basis 2 1 basis 3 1 basis 4 1                    basis 5 2 basis 6 2 basis 7 2 basis 8 2 basis 9 2 basis 10 2 basis 11 2 basis 12 2
Created 6144 atoms

# Mass of Ce and O in atomic units
mass 1 140.116   # Cerium
mass 2 15.999    # Oxygen

# Set charges for the atom types
set type 1 charge 4.0   # Charge for Cerium (Ce)
Setting atom values ...
  2048 settings made for charge
set type 2 charge -2.0  # Charge for Oxygen (O)
Setting atom values ...
  4096 settings made for charge

# Naming atom types for OVITO visualization
group Ce type 1
2048 atoms in group Ce
group O type 2
4096 atoms in group O

# Dump the initial configuration
dump init all custom 1 initial_config.lammpstrj id element x y z vx vy vz
dump_modify init element Ce O first yes
run 0
Step          Temp          E_pair         E_mol          TotEng         Press
0   0              0              0              0              0
Loop time of 2.51575e-06 on 8 procs for 0 steps with 6144 atoms

undump init

# Stop LAMMPS after generating the initial dump file for debugging
# quit

# Buckingham potential with Coulombic term  # TODO: Convert to real units
pair_style buck/coul/long 10.0
pair_coeff 1 1 0.0 1.0 0.0
pair_coeff 1 2 11.350e4 0.3810 0.0
pair_coeff 2 2 21.960e5 0.1490 2.691e3
# pair_coeff 1 1 A1 B1 C1
# pair_coeff 1 2 A12 B12 C12
# pair_coeff 2 2 A2 B2 C2

# Note: The parameters A, B, and C need to be provided for Ce-Ce, Ce-O, and O-O interactions.
# A = repulsive potential coefficient
# B = repulsive potential exponent
# C = van der Waals interaction coefficient
# Replace A1, B1, C1, A12, B12, C12, A2, B2, and C2 with their respective values.

kspace_style ewald 1.0e-4

# Timestep of 1 fs (since we are using real units)
timestep 1.0

# Loop over temperatures from 2000 K to 4000 K in increments of 200 K
variable temp index 2000 2200 2400 2600 2800 3000 3200 3400 3600 3800 4000
label loop_temperature

velocity all create 2000 87287 loop geom

fix 1 all npt temp 2000 2000 100.0 iso 1.0 1.0 1000.0
thermo 100
thermo_style custom step pe ke etotal temp press vol

# Output dump
dump 1 all custom 100 dump_2000K.lammpstrj id element x y z vx vy vz
dump_modify 1 element Ce O

# Run the simulation for 10000 steps
run 10000
Ewald initialization ...
  G vector (1/distance) = 0.3088922
  estimated absolute RMS force accuracy = 0.034397518
  estimated relative force accuracy = 0.0001035871
  KSpace vectors: actual max1d max3d = 5756 14 12194
                  kxmax kymax kzmax  = 14 14 14
Generated 0 of 1 mixed pair_coeff terms from geometric mixing rule
Step         PotEng         KinEng         TotEng          Temp          Press          Volume
0  -1954078.8      36622.232     -1917456.6      2000           5199770.3      81115.26
Averages over the last 51 of 101 rows, steps 5000 to 10000:
PotEng KinEng TotEng Temp Press Volume
-3.79771e+06 36641.6 -3.76106e+06 2001.06 56.706 198916
Loop time of 599.417 on 8 procs for 10000 steps with 6144 atoms

# Unfix the previous fix to prepare for the next loop iteration
unfix 1

# Dump settings will be cleared with the unfix command, so we remove it
undump 1

# Next iteration
next temp
jump SELF loop_temperature

velocity all create 2200 87287 loop geom

fix 1 all npt temp 2200 2200 100.0 iso 1.0 1.0 1000.0
thermo 100
thermo_style custom step pe ke etotal temp press vol

# Output dump
dump 1 all custom 100 dump_2200K.lammpstrj id element x y z vx vy vz
dump_modify 1 element Ce O

# Run the simulation for 10000 steps
run 10000
Ewald initialization ...
  G vector (1/distance) = 0.30156548
  estimated absolute RMS force accuracy = 0.044216631
  estimated relative force accuracy = 0.00013315707
  KSpace vectors: actual max1d max3d = 10239 17 21437
                  kxmax kymax kzmax  = 17 17 17
Generated 0 of 1 mixed pair_coeff terms from geometric mixing rule
Step         PotEng         KinEng         TotEng          Temp          Press          Volume
10000  -3799076.1      40284.456     -3758791.6      2200           1562.1899      198422.97
Averages over the last 51 of 101 rows, steps 15000 to 20000:
PotEng KinEng TotEng Temp Press Volume
-3.79518e+06 40201.4 -3.75497e+06 2195.46 16.1452 199754
Loop time of 542.189 on 8 procs for 10000 steps with 6144 atoms

# Unfix the previous fix to prepare for the next loop iteration
unfix 1

# Dump settings will be cleared with the unfix command, so we remove it
undump 1

# Next iteration
next temp
jump SELF loop_temperature

velocity all create 2400 87287 loop geom

fix 1 all npt temp 2400 2400 100.0 iso 1.0 1.0 1000.0
thermo 100
thermo_style custom step pe ke etotal temp press vol

# Output dump
dump 1 all custom 100 dump_2400K.lammpstrj id element x y z vx vy vz
dump_modify 1 element Ce O

# Run the simulation for 10000 steps
run 10000
Ewald initialization ...
  G vector (1/distance) = 0.30153295
  estimated absolute RMS force accuracy = 0.044621986
  estimated relative force accuracy = 0.00013437779
  KSpace vectors: actual max1d max3d = 10239 17 21437
                  kxmax kymax kzmax  = 17 17 17
Generated 0 of 1 mixed pair_coeff terms from geometric mixing rule
Step         PotEng         KinEng         TotEng          Temp          Press          Volume
20000  -3796098.2      43946.679     -3752151.5      2400           2919.4555      199203.24
Averages over the last 51 of 101 rows, steps 25000 to 30000:
PotEng KinEng TotEng Temp Press Volume
-3.79144e+06 44012.2 -3.74742e+06 2403.58 -126.217 200311
Loop time of 540.047 on 8 procs for 10000 steps with 6144 atoms

# Unfix the previous fix to prepare for the next loop iteration
unfix 1

# Dump settings will be cleared with the unfix command, so we remove it
undump 1

# Next iteration
next temp
jump SELF loop_temperature

velocity all create 2600 87287 loop geom

fix 1 all npt temp 2600 2600 100.0 iso 1.0 1.0 1000.0
thermo 100
thermo_style custom step pe ke etotal temp press vol

# Output dump
dump 1 all custom 100 dump_2600K.lammpstrj id element x y z vx vy vz
dump_modify 1 element Ce O

# Run the simulation for 10000 steps
run 10000
Ewald initialization ...
  G vector (1/distance) = 0.30146695
  estimated absolute RMS force accuracy = 0.045481599
  estimated relative force accuracy = 0.00013696648
  KSpace vectors: actual max1d max3d = 10239 17 21437
                  kxmax kymax kzmax  = 17 17 17
Generated 0 of 1 mixed pair_coeff terms from geometric mixing rule
Step         PotEng         KinEng         TotEng          Temp          Press          Volume
30000  -3790437        47608.902     -3742828        2600          -53.490845      200795.1
Averages over the last 51 of 101 rows, steps 35000 to 40000:
PotEng KinEng TotEng Temp Press Volume
-3.78674e+06 47616.8 -3.73912e+06 2600.43 29.4413 201391
Loop time of 540.996 on 8 procs for 10000 steps with 6144 atoms

# Unfix the previous fix to prepare for the next loop iteration
unfix 1

# Dump settings will be cleared with the unfix command, so we remove it
undump 1

# Next iteration
next temp
jump SELF loop_temperature

velocity all create 2800 87287 loop geom

fix 1 all npt temp 2800 2800 100.0 iso 1.0 1.0 1000.0
thermo 100
thermo_style custom step pe ke etotal temp press vol

# Output dump
dump 1 all custom 100 dump_2800K.lammpstrj id element x y z vx vy vz
dump_modify 1 element Ce O

# Run the simulation for 10000 steps
run 10000
Ewald initialization ...
  G vector (1/distance) = 0.30145226
  estimated absolute RMS force accuracy = 0.045679931
  estimated relative force accuracy = 0.00013756376
  KSpace vectors: actual max1d max3d = 10239 17 21437
                  kxmax kymax kzmax  = 17 17 17
Generated 0 of 1 mixed pair_coeff terms from geometric mixing rule
Step         PotEng         KinEng         TotEng          Temp          Press          Volume
40000  -3786395.8      51271.125     -3735124.7      2800           2495.7809      201151.15
Averages over the last 51 of 101 rows, steps 45000 to 50000:
PotEng KinEng TotEng Temp Press Volume
-3.78298e+06 51412.5 -3.73157e+06 2807.72 7.82564 202756
Loop time of 537.459 on 8 procs for 10000 steps with 6144 atoms

# Unfix the previous fix to prepare for the next loop iteration
unfix 1

# Dump settings will be cleared with the unfix command, so we remove it
undump 1

# Next iteration
next temp
jump SELF loop_temperature

velocity all create 3000 87287 loop geom

fix 1 all npt temp 3000 3000 100.0 iso 1.0 1.0 1000.0
thermo 100
thermo_style custom step pe ke etotal temp press vol

# Output dump
dump 1 all custom 100 dump_3000K.lammpstrj id element x y z vx vy vz
dump_modify 1 element Ce O

# Run the simulation for 10000 steps
run 10000
Ewald initialization ...
  G vector (1/distance) = 0.30138531
  estimated absolute RMS force accuracy = 0.046616738
  estimated relative force accuracy = 0.00014038492
  KSpace vectors: actual max1d max3d = 10239 17 21437
                  kxmax kymax kzmax  = 17 17 17
Generated 0 of 1 mixed pair_coeff terms from geometric mixing rule
Step         PotEng         KinEng         TotEng          Temp          Press          Volume
50000  -3783719.2      54933.348     -3728785.8      3000           978.58157      202781.39
Averages over the last 51 of 101 rows, steps 55000 to 60000:
PotEng KinEng TotEng Temp Press Volume
-3.78336e+06 54960.6 -3.7284e+06 3001.49 56.9442 204146
Loop time of 592.808 on 8 procs for 10000 steps with 6144 atoms

# Unfix the previous fix to prepare for the next loop iteration
unfix 1

# Dump settings will be cleared with the unfix command, so we remove it
undump 1

# Next iteration
next temp
jump SELF loop_temperature

velocity all create 3200 87287 loop geom

fix 1 all npt temp 3200 3200 100.0 iso 1.0 1.0 1000.0
thermo 100
thermo_style custom step pe ke etotal temp press vol

# Output dump
dump 1 all custom 100 dump_3200K.lammpstrj id element x y z vx vy vz
dump_modify 1 element Ce O

# Run the simulation for 10000 steps
run 10000
Ewald initialization ...
  G vector (1/distance) = 0.30131622
  estimated absolute RMS force accuracy = 0.035011189
  estimated relative force accuracy = 0.00010543515
  KSpace vectors: actual max1d max3d = 12202 18 25326
                  kxmax kymax kzmax  = 18 18 18
Generated 0 of 1 mixed pair_coeff terms from geometric mixing rule
Step         PotEng         KinEng         TotEng          Temp          Press          Volume
60000  -3785045.8      58595.572     -3726450.2      3200           1309.8076      204477.03
Averages over the last 51 of 101 rows, steps 65000 to 70000:
PotEng KinEng TotEng Temp Press Volume
-3.80029e+06 58796.8 -3.74149e+06 3210.99 33.9406 203403
Loop time of 572.951 on 8 procs for 10000 steps with 6144 atoms

# Unfix the previous fix to prepare for the next loop iteration
unfix 1

# Dump settings will be cleared with the unfix command, so we remove it
undump 1

# Next iteration
next temp
jump SELF loop_temperature

velocity all create 3400 87287 loop geom

fix 1 all npt temp 3400 3400 100.0 iso 1.0 1.0 1000.0
thermo 100
thermo_style custom step pe ke etotal temp press vol

# Output dump
dump 1 all custom 100 dump_3400K.lammpstrj id element x y z vx vy vz
dump_modify 1 element Ce O

# Run the simulation for 10000 steps
run 10000
Ewald initialization ...
  G vector (1/distance) = 0.30143872
  estimated absolute RMS force accuracy = 0.045864916
  estimated relative force accuracy = 0.00013812083
  KSpace vectors: actual max1d max3d = 10239 17 21437
                  kxmax kymax kzmax  = 17 17 17
Generated 0 of 1 mixed pair_coeff terms from geometric mixing rule
Step         PotEng         KinEng         TotEng          Temp          Press          Volume
70000  -3814248.3      62257.795     -3751990.5      3400           621.9436       201479.68
Averages over the last 51 of 101 rows, steps 75000 to 80000:
PotEng KinEng TotEng Temp Press Volume
-3.81699e+06 62428.1 -3.75457e+06 3409.3 6.5309 201006
Loop time of 537.338 on 8 procs for 10000 steps with 6144 atoms

# Unfix the previous fix to prepare for the next loop iteration
unfix 1

# Dump settings will be cleared with the unfix command, so we remove it
undump 1

# Next iteration
next temp
jump SELF loop_temperature

velocity all create 3600 87287 loop geom

fix 1 all npt temp 3600 3600 100.0 iso 1.0 1.0 1000.0
thermo 100
thermo_style custom step pe ke etotal temp press vol

# Output dump
dump 1 all custom 100 dump_3600K.lammpstrj id element x y z vx vy vz
dump_modify 1 element Ce O

# Run the simulation for 10000 steps
run 10000
Ewald initialization ...
  G vector (1/distance) = 0.30147248
  estimated absolute RMS force accuracy = 0.045407543
  estimated relative force accuracy = 0.00013674347
  KSpace vectors: actual max1d max3d = 10239 17 21437
                  kxmax kymax kzmax  = 17 17 17
Generated 0 of 1 mixed pair_coeff terms from geometric mixing rule
Step         PotEng         KinEng         TotEng          Temp          Press          Volume
80000  -3817036.7      65920.018     -3751116.6      3600           1475.14        200661.12
Averages over the last 51 of 101 rows, steps 85000 to 90000:
PotEng KinEng TotEng Temp Press Volume
-3.81219e+06 66090.1 -3.7461e+06 3609.29 76.6829 202002
Loop time of 545.032 on 8 procs for 10000 steps with 6144 atoms

# Unfix the previous fix to prepare for the next loop iteration
unfix 1

# Dump settings will be cleared with the unfix command, so we remove it
undump 1

# Next iteration
next temp
jump SELF loop_temperature

velocity all create 3800 87287 loop geom

fix 1 all npt temp 3800 3800 100.0 iso 1.0 1.0 1000.0
thermo 100
thermo_style custom step pe ke etotal temp press vol

# Output dump
dump 1 all custom 100 dump_3800K.lammpstrj id element x y z vx vy vz
dump_modify 1 element Ce O

# Run the simulation for 10000 steps
run 10000
Ewald initialization ...
  G vector (1/distance) = 0.30141279
  estimated absolute RMS force accuracy = 0.046225511
  estimated relative force accuracy = 0.00013920675
  KSpace vectors: actual max1d max3d = 10239 17 21437
                  kxmax kymax kzmax  = 17 17 17
Generated 0 of 1 mixed pair_coeff terms from geometric mixing rule
Step         PotEng         KinEng         TotEng          Temp          Press          Volume
90000  -3811782.2      69582.241     -3742199.9      3800           123.02811      202110.55
Averages over the last 51 of 101 rows, steps 95000 to 100000:
PotEng KinEng TotEng Temp Press Volume
-3.80705e+06 69472.3 -3.73757e+06 3793.99 -56.5072 203092
Loop time of 4266.47 on 8 procs for 10000 steps with 6144 atoms

# Unfix the previous fix to prepare for the next loop iteration
unfix 1

# Dump settings will be cleared with the unfix command, so we remove it
undump 1

# Next iteration
next temp
jump SELF loop_temperature

velocity all create 4000 87287 loop geom

fix 1 all npt temp 4000 4000 100.0 iso 1.0 1.0 1000.0
thermo 100
thermo_style custom step pe ke etotal temp press vol

# Output dump
dump 1 all custom 100 dump_4000K.lammpstrj id element x y z vx vy vz
dump_modify 1 element Ce O

# Run the simulation for 10000 steps
run 10000
Ewald initialization ...
  G vector (1/distance) = 0.30136175
  estimated absolute RMS force accuracy = 0.046959547
  estimated relative force accuracy = 0.00014141728
  KSpace vectors: actual max1d max3d = 10239 17 21437
                  kxmax kymax kzmax  = 17 17 17
Generated 0 of 1 mixed pair_coeff terms from geometric mixing rule
Step         PotEng         KinEng         TotEng          Temp          Press          Volume
100000  -3805804.3      73244.465     -3732559.8      4000           31.239737      203358.12
Averages over the last 51 of 101 rows, steps 105000 to 110000:
PotEng KinEng TotEng Temp Press Volume
-3.80106e+06 73143.6 -3.72792e+06 3994.49 -36.3136 204258
Loop time of 618.102 on 8 procs for 10000 steps with 6144 atoms

# Unfix the previous fix to prepare for the next loop iteration
unfix 1

# Dump settings will be cleared with the unfix command, so we remove it
undump 1

# Next iteration
next temp
jump SELF loop_temperature
