LAMMPS (28 Mar 2023 - Update 1)
# LAMMPS input script using real units

units real
atom_style charge
boundary p p p

# Create lattice (Note: Adjust the lattice parameters as necessary)
lattice custom 5.411 basis 0.00 0.00 0.00                      basis 0.00 0.50 0.50                      basis 0.50 0.00 0.50                      basis 0.50 0.50 0.00                      basis 0.25 0.75 0.75                      basis 0.75 0.25 0.25                      basis 0.25 0.25 0.25                      basis 0.75 0.75 0.75                      basis 0.75 0.75 0.25                      basis 0.25 0.25 0.75                      basis 0.75 0.25 0.75                      basis 0.25 0.75 0.25
Lattice spacing in x,y,z = 5.411 5.411 5.411
region box block 0 8 0 8 0 8
create_box 2 box
Created orthogonal box = (0 0 0) to (43.288 43.288 43.288)
create_atoms 1 box basis 1 1 basis 2 1 basis 3 1 basis 4 1                    basis 5 2 basis 6 2 basis 7 2 basis 8 2 basis 9 2 basis 10 2 basis 11 2 basis 12 2
Created 6144 atoms

# Mass of Ce and O in atomic units
mass 1 140.116   # Cerium
mass 2 15.999    # Oxygen

# Set charges for the atom types
set type 1 charge 4.0   # Charge for Cerium (Ce)
Setting atom values ...
  2048 settings made for charge
set type 2 charge -2.0  # Charge for Oxygen (O)
Setting atom values ...
  4096 settings made for charge

# Naming atom types for OVITO visualization
group Ce type 1
2048 atoms in group Ce
group O type 2
4096 atoms in group O

# Dump the initial configuration
dump init all custom 1 initial_config.lammpstrj id element x y z vx vy vz
dump_modify init element Ce O first yes
run 0
Step          Temp          E_pair         E_mol          TotEng         Press
0   0              0              0              0              0
Loop time of 2.5155e-06 on 8 procs for 0 steps with 6144 atoms

undump init

# Stop LAMMPS after generating the initial dump file for debugging
# quit

# Buckingham potential with Coulombic term
pair_style buck/coul/long 10.0
pair_coeff 1 1 0.0 1.0 0.0
pair_coeff 1 2 27127.1511 0.3810 0.0
pair_coeff 2 2 524856.597 0.1490 643.164436

# I converted these to kcal/mol above, but the original values are below
# pair_coeff 1 2 11.350e4 0.3810 0.0
# pair_coeff 2 2 21.960e5 0.1490 2.691e3

# pair_coeff 1 1 A1 B1 C1
# pair_coeff 1 2 A12 B12 C12
# pair_coeff 2 2 A2 B2 C2

# Note: The parameters A, B, and C need to be provided for Ce-Ce, Ce-O, and O-O interactions.
# A = repulsive potential coefficient
# B = repulsive potential exponent
# C = van der Waals interaction coefficient
# Replace A1, B1, C1, A12, B12, C12, A2, B2, and C2 with their respective values.

kspace_style ewald 1.0e-4

# Timestep of 1 fs (since we are using real units)
timestep 1.0

# Loop over temperatures from 100 K to 3000 K in increments of 100 K
variable temp index 2000 2200 2400 2600 2800 3000 3200 3400 3600 3800 4000
label loop_temperature

velocity all create 2000 87287 loop geom

fix 1 all npt temp 2000 2000 100.0 iso 1.0 1.0 1000.0
thermo 100
thermo_style custom step pe ke etotal temp press vol

# Output dump
dump 1 all custom 100 dump_2000K.lammpstrj id element x y z vx vy vz
dump_modify 1 element Ce O

# Run the simulation for 10000 steps
run 10000
Ewald initialization ...
  G vector (1/distance) = 0.3088922
  estimated absolute RMS force accuracy = 0.034397518
  estimated relative force accuracy = 0.0001035871
  KSpace vectors: actual max1d max3d = 5756 14 12194
                  kxmax kymax kzmax  = 14 14 14
Generated 0 of 1 mixed pair_coeff terms from geometric mixing rule
Step         PotEng         KinEng         TotEng          Temp          Press          Volume
0  -4919029.4      36622.232     -4882407.1      2000           3303.1875      81115.26
Averages over the last 51 of 101 rows, steps 5000 to 10000:
PotEng KinEng TotEng Temp Press Volume
-4.87959e+06 36638.8 -4.84295e+06 2000.91 49.1378 84630.8
Loop time of 351.228 on 8 procs for 10000 steps with 6144 atoms

# Unfix the previous fix to prepare for the next loop iteration
unfix 1

# Dump settings will be cleared with the unfix command, so we remove it
undump 1

# Next iteration
next temp
jump SELF loop_temperature

velocity all create 2200 87287 loop geom

fix 1 all npt temp 2200 2200 100.0 iso 1.0 1.0 1000.0
thermo 100
thermo_style custom step pe ke etotal temp press vol

# Output dump
dump 1 all custom 100 dump_2200K.lammpstrj id element x y z vx vy vz
dump_modify 1 element Ce O

# Run the simulation for 10000 steps
run 10000
Ewald initialization ...
  G vector (1/distance) = 0.30855946
  estimated absolute RMS force accuracy = 0.035165474
  estimated relative force accuracy = 0.00010589978
  KSpace vectors: actual max1d max3d = 5756 14 12194
                  kxmax kymax kzmax  = 14 14 14
Generated 0 of 1 mixed pair_coeff terms from geometric mixing rule
Step         PotEng         KinEng         TotEng          Temp          Press          Volume
10000  -4879877.7      40284.456     -4839593.2      2200           4057.3294      84517.711
Averages over the last 51 of 101 rows, steps 15000 to 20000:
PotEng KinEng TotEng Temp Press Volume
-4.87553e+06 40245.6 -4.83529e+06 2197.88 -117.334 85070.2
Loop time of 350.58 on 8 procs for 10000 steps with 6144 atoms

# Unfix the previous fix to prepare for the next loop iteration
unfix 1

# Dump settings will be cleared with the unfix command, so we remove it
undump 1

# Next iteration
next temp
jump SELF loop_temperature

velocity all create 2400 87287 loop geom

fix 1 all npt temp 2400 2400 100.0 iso 1.0 1.0 1000.0
thermo 100
thermo_style custom step pe ke etotal temp press vol

# Output dump
dump 1 all custom 100 dump_2400K.lammpstrj id element x y z vx vy vz
dump_modify 1 element Ce O

# Run the simulation for 10000 steps
run 10000
Ewald initialization ...
  G vector (1/distance) = 0.30846504
  estimated absolute RMS force accuracy = 0.03545466
  estimated relative force accuracy = 0.00010677065
  KSpace vectors: actual max1d max3d = 5756 14 12194
                  kxmax kymax kzmax  = 14 14 14
Generated 0 of 1 mixed pair_coeff terms from geometric mixing rule
Step         PotEng         KinEng         TotEng          Temp          Press          Volume
20000  -4874739.1      43946.679     -4830792.4      2400          -7098.6971      85508.301
Averages over the last 51 of 101 rows, steps 25000 to 30000:
PotEng KinEng TotEng Temp Press Volume
-4.87123e+06 43887 -4.82735e+06 2396.74 -112.533 85520
Loop time of 349.78 on 8 procs for 10000 steps with 6144 atoms

# Unfix the previous fix to prepare for the next loop iteration
unfix 1

# Dump settings will be cleared with the unfix command, so we remove it
undump 1

# Next iteration
next temp
jump SELF loop_temperature

velocity all create 2600 87287 loop geom

fix 1 all npt temp 2600 2600 100.0 iso 1.0 1.0 1000.0
thermo 100
thermo_style custom step pe ke etotal temp press vol

# Output dump
dump 1 all custom 100 dump_2600K.lammpstrj id element x y z vx vy vz
dump_modify 1 element Ce O

# Run the simulation for 10000 steps
run 10000
Ewald initialization ...
  G vector (1/distance) = 0.30846672
  estimated absolute RMS force accuracy = 0.035449174
  estimated relative force accuracy = 0.00010675414
  KSpace vectors: actual max1d max3d = 5756 14 12194
                  kxmax kymax kzmax  = 14 14 14
Generated 0 of 1 mixed pair_coeff terms from geometric mixing rule
Step         PotEng         KinEng         TotEng          Temp          Press          Volume
30000  -4870692.1      47608.902     -4823083.2      2600           3162.0862      85490.524
Averages over the last 51 of 101 rows, steps 35000 to 40000:
PotEng KinEng TotEng Temp Press Volume
-4.86684e+06 47550.8 -4.81929e+06 2596.83 224.776 85998.5
Loop time of 353.073 on 8 procs for 10000 steps with 6144 atoms

# Unfix the previous fix to prepare for the next loop iteration
unfix 1

# Dump settings will be cleared with the unfix command, so we remove it
undump 1

# Next iteration
next temp
jump SELF loop_temperature

velocity all create 2800 87287 loop geom

fix 1 all npt temp 2800 2800 100.0 iso 1.0 1.0 1000.0
thermo 100
thermo_style custom step pe ke etotal temp press vol

# Output dump
dump 1 all custom 100 dump_2800K.lammpstrj id element x y z vx vy vz
dump_modify 1 element Ce O

# Run the simulation for 10000 steps
run 10000
Ewald initialization ...
  G vector (1/distance) = 0.30844546
  estimated absolute RMS force accuracy = 0.035519285
  estimated relative force accuracy = 0.00010696527
  KSpace vectors: actual max1d max3d = 5756 14 12194
                  kxmax kymax kzmax  = 14 14 14
Generated 0 of 1 mixed pair_coeff terms from geometric mixing rule
Step         PotEng         KinEng         TotEng          Temp          Press          Volume
40000  -4867172.8      51271.125     -4815901.6      2800           6427.6187      85715.066
Averages over the last 51 of 101 rows, steps 45000 to 50000:
PotEng KinEng TotEng Temp Press Volume
-4.86239e+06 51099 -4.8113e+06 2790.6 64.5871 86477.2
Loop time of 350.477 on 8 procs for 10000 steps with 6144 atoms

# Unfix the previous fix to prepare for the next loop iteration
unfix 1

# Dump settings will be cleared with the unfix command, so we remove it
undump 1

# Next iteration
next temp
jump SELF loop_temperature

velocity all create 3000 87287 loop geom

fix 1 all npt temp 3000 3000 100.0 iso 1.0 1.0 1000.0
thermo 100
thermo_style custom step pe ke etotal temp press vol

# Output dump
dump 1 all custom 100 dump_3000K.lammpstrj id element x y z vx vy vz
dump_modify 1 element Ce O

# Run the simulation for 10000 steps
run 10000
Ewald initialization ...
  G vector (1/distance) = 0.30834875
  estimated absolute RMS force accuracy = 0.035864084
  estimated relative force accuracy = 0.00010800362
  KSpace vectors: actual max1d max3d = 5756 14 12194
                  kxmax kymax kzmax  = 14 14 14
Generated 0 of 1 mixed pair_coeff terms from geometric mixing rule
Step         PotEng         KinEng         TotEng          Temp          Press          Volume
50000  -4861249.6      54933.348     -4806316.3      3000           142.83029      86743.736
Averages over the last 51 of 101 rows, steps 55000 to 60000:
PotEng KinEng TotEng Temp Press Volume
-4.85786e+06 54943.2 -4.80292e+06 3000.54 78.5926 86945.4
Loop time of 354.743 on 8 procs for 10000 steps with 6144 atoms

# Unfix the previous fix to prepare for the next loop iteration
unfix 1

# Dump settings will be cleared with the unfix command, so we remove it
undump 1

# Next iteration
next temp
jump SELF loop_temperature

velocity all create 3200 87287 loop geom

fix 1 all npt temp 3200 3200 100.0 iso 1.0 1.0 1000.0
thermo 100
thermo_style custom step pe ke etotal temp press vol

# Output dump
dump 1 all custom 100 dump_3200K.lammpstrj id element x y z vx vy vz
dump_modify 1 element Ce O

# Run the simulation for 10000 steps
run 10000
Ewald initialization ...
  G vector (1/distance) = 0.30834171
  estimated absolute RMS force accuracy = 0.035890935
  estimated relative force accuracy = 0.00010808448
  KSpace vectors: actual max1d max3d = 5756 14 12194
                  kxmax kymax kzmax  = 14 14 14
Generated 0 of 1 mixed pair_coeff terms from geometric mixing rule
Step         PotEng         KinEng         TotEng          Temp          Press          Volume
60000  -4858590.8      58595.572     -4799995.2      3200           4570.9402      86819.129
Averages over the last 51 of 101 rows, steps 65000 to 70000:
PotEng KinEng TotEng Temp Press Volume
-4.85276e+06 58602.8 -4.79416e+06 3200.4 -169.732 87496.1
Loop time of 350.428 on 8 procs for 10000 steps with 6144 atoms

# Unfix the previous fix to prepare for the next loop iteration
unfix 1

# Dump settings will be cleared with the unfix command, so we remove it
undump 1

# Next iteration
next temp
jump SELF loop_temperature

velocity all create 3400 87287 loop geom

fix 1 all npt temp 3400 3400 100.0 iso 1.0 1.0 1000.0
thermo 100
thermo_style custom step pe ke etotal temp press vol

# Output dump
dump 1 all custom 100 dump_3400K.lammpstrj id element x y z vx vy vz
dump_modify 1 element Ce O

# Run the simulation for 10000 steps
run 10000
Ewald initialization ...
  G vector (1/distance) = 0.30828152
  estimated absolute RMS force accuracy = 0.036130584
  estimated relative force accuracy = 0.00010880618
  KSpace vectors: actual max1d max3d = 5756 14 12194
                  kxmax kymax kzmax  = 14 14 14
Generated 0 of 1 mixed pair_coeff terms from geometric mixing rule
Step         PotEng         KinEng         TotEng          Temp          Press          Volume
70000  -4852465.7      62257.795     -4790207.9      3400           3282.4753      87465.964
Averages over the last 51 of 101 rows, steps 75000 to 80000:
PotEng KinEng TotEng Temp Press Volume
-4.84816e+06 62205.3 -4.78596e+06 3397.13 104.87 88008.1
Loop time of 352.009 on 8 procs for 10000 steps with 6144 atoms

# Unfix the previous fix to prepare for the next loop iteration
unfix 1

# Dump settings will be cleared with the unfix command, so we remove it
undump 1

# Next iteration
next temp
jump SELF loop_temperature

velocity all create 3600 87287 loop geom

fix 1 all npt temp 3600 3600 100.0 iso 1.0 1.0 1000.0
thermo 100
thermo_style custom step pe ke etotal temp press vol

# Output dump
dump 1 all custom 100 dump_3600K.lammpstrj id element x y z vx vy vz
dump_modify 1 element Ce O

# Run the simulation for 10000 steps
run 10000
Ewald initialization ...
  G vector (1/distance) = 0.30823798
  estimated absolute RMS force accuracy = 0.036315829
  estimated relative force accuracy = 0.00010936404
  KSpace vectors: actual max1d max3d = 5756 14 12194
                  kxmax kymax kzmax  = 14 14 14
Generated 0 of 1 mixed pair_coeff terms from geometric mixing rule
Step         PotEng         KinEng         TotEng          Temp          Press          Volume
80000  -4847274.7      65920.018     -4781354.7      3600           2940.5629      87936.858
Averages over the last 51 of 101 rows, steps 85000 to 90000:
PotEng KinEng TotEng Temp Press Volume
-4.84309e+06 66006.9 -4.77708e+06 3604.74 -163.82 88522
Loop time of 358.327 on 8 procs for 10000 steps with 6144 atoms

# Unfix the previous fix to prepare for the next loop iteration
unfix 1

# Dump settings will be cleared with the unfix command, so we remove it
undump 1

# Next iteration
next temp
jump SELF loop_temperature

velocity all create 3800 87287 loop geom

fix 1 all npt temp 3800 3800 100.0 iso 1.0 1.0 1000.0
thermo 100
thermo_style custom step pe ke etotal temp press vol

# Output dump
dump 1 all custom 100 dump_3800K.lammpstrj id element x y z vx vy vz
dump_modify 1 element Ce O

# Run the simulation for 10000 steps
run 10000
Ewald initialization ...
  G vector (1/distance) = 0.30819295
  estimated absolute RMS force accuracy = 0.036518409
  estimated relative force accuracy = 0.00010997411
  KSpace vectors: actual max1d max3d = 5756 14 12194
                  kxmax kymax kzmax  = 14 14 14
Generated 0 of 1 mixed pair_coeff terms from geometric mixing rule
Step         PotEng         KinEng         TotEng          Temp          Press          Volume
90000  -4842976.6      69582.241     -4773394.4      3800           2316.8893      88426.34
Averages over the last 51 of 101 rows, steps 95000 to 100000:
PotEng KinEng TotEng Temp Press Volume
-4.83738e+06 69648.2 -4.76774e+06 3803.6 163.183 89131.3
Loop time of 349.66 on 8 procs for 10000 steps with 6144 atoms

# Unfix the previous fix to prepare for the next loop iteration
unfix 1

# Dump settings will be cleared with the unfix command, so we remove it
undump 1

# Next iteration
next temp
jump SELF loop_temperature

velocity all create 4000 87287 loop geom

fix 1 all npt temp 4000 4000 100.0 iso 1.0 1.0 1000.0
thermo 100
thermo_style custom step pe ke etotal temp press vol

# Output dump
dump 1 all custom 100 dump_4000K.lammpstrj id element x y z vx vy vz
dump_modify 1 element Ce O

# Run the simulation for 10000 steps
run 10000
Ewald initialization ...
  G vector (1/distance) = 0.30813368
  estimated absolute RMS force accuracy = 0.036803117
  estimated relative force accuracy = 0.00011083149
  KSpace vectors: actual max1d max3d = 5756 14 12194
                  kxmax kymax kzmax  = 14 14 14
Generated 0 of 1 mixed pair_coeff terms from geometric mixing rule
Step         PotEng         KinEng         TotEng          Temp          Press          Volume
100000  -4838924        73244.465     -4765679.6      4000          -1536.2723      89074.745
Averages over the last 13 of 25 rows, steps 101200 to 102400:
PotEng KinEng TotEng Temp Press Volume
-4.8322e+06 73012 -4.75919e+06 3987.31 1327.84 82750
