LAMMPS (28 Mar 2023 - Update 1)
# LAMMPS input script using real units

units real
atom_style charge
boundary p p p

# Create lattice (Note: Adjust the lattice parameters as necessary)
lattice custom 5.411 basis 0.00 0.00 0.00                      basis 0.00 0.50 0.50                      basis 0.50 0.00 0.50                      basis 0.50 0.50 0.00                      basis 0.25 0.75 0.75                      basis 0.75 0.25 0.25                      basis 0.25 0.25 0.25                      basis 0.75 0.75 0.75                      basis 0.75 0.75 0.25                      basis 0.25 0.25 0.75                      basis 0.75 0.25 0.75                      basis 0.25 0.75 0.25
Lattice spacing in x,y,z = 5.411 5.411 5.411
region box block 0 8 0 8 0 8
create_box 2 box
Created orthogonal box = (0 0 0) to (43.288 43.288 43.288)
create_atoms 1 box basis 1 1 basis 2 1 basis 3 1 basis 4 1                    basis 5 2 basis 6 2 basis 7 2 basis 8 2 basis 9 2 basis 10 2 basis 11 2 basis 12 2
Created 6144 atoms

# Mass of Ce and O in atomic units
mass 1 140.116   # Cerium
mass 2 15.999    # Oxygen

# Set charges for the atom types
set type 1 charge 4.0   # Charge for Cerium (Ce)
Setting atom values ...
  2048 settings made for charge
set type 2 charge -2.0  # Charge for Oxygen (O)
Setting atom values ...
  4096 settings made for charge

# Naming atom types for OVITO visualization
group Ce type 1
2048 atoms in group Ce
group O type 2
4096 atoms in group O

# Dump the initial configuration
dump init all custom 1 initial_config.lammpstrj id element x y z vx vy vz
dump_modify init element Ce O first yes
run 0
Step          Temp          E_pair         E_mol          TotEng         Press
0   0              0              0              0              0
Loop time of 3.6615e-06 on 8 procs for 0 steps with 6144 atoms

undump init

# Stop LAMMPS after generating the initial dump file for debugging
# quit

# Buckingham potential with Coulombic term
pair_style buck/coul/long 10.0
pair_coeff 1 1 0.0 1.0 0.0
pair_coeff 1 2 27127.1511 0.3810 0.0
pair_coeff 2 2 524856.597 0.1490 643.164436

# I converted these to kcal/mol above, but the original values are below
# pair_coeff 1 2 11.350e4 0.3810 0.0
# pair_coeff 2 2 21.960e5 0.1490 2.691e3

# pair_coeff 1 1 A1 B1 C1
# pair_coeff 1 2 A12 B12 C12
# pair_coeff 2 2 A2 B2 C2

# Note: The parameters A, B, and C need to be provided for Ce-Ce, Ce-O, and O-O interactions.
# A = repulsive potential coefficient
# B = repulsive potential exponent
# C = van der Waals interaction coefficient
# Replace A1, B1, C1, A12, B12, C12, A2, B2, and C2 with their respective values.

kspace_style ewald 1.0e-4

# Timestep of 1 fs (since we are using real units)
timestep 1.0

# Loop over temperatures from 2000 K to 4000 K in increments of 200 K
variable temp index 2000 2200 2400 2600 2800 3000 3200 3400 3600 3800 4000
label loop_temperature

velocity all create 2000 87287 loop geom

fix 1 all npt temp 2000 2000 100.0 aniso 1.0 1.0 1000.0
thermo 100
thermo_style custom step pe ke etotal temp press vol

# Output dump
dump 1 all custom 100 dump_2000K.lammpstrj id element x y z vx vy vz
dump_modify 1 element Ce O

# Run the simulation for 10000 steps
run 10000
Ewald initialization ...
  G vector (1/distance) = 0.3088922
  estimated absolute RMS force accuracy = 0.034397518
  estimated relative force accuracy = 0.0001035871
  KSpace vectors: actual max1d max3d = 5756 14 12194
                  kxmax kymax kzmax  = 14 14 14
Generated 0 of 1 mixed pair_coeff terms from geometric mixing rule
Step         PotEng         KinEng         TotEng          Temp          Press          Volume
0  -4919029.4      36622.232     -4882407.1      2000           3303.1875      81115.26
Averages over the last 51 of 101 rows, steps 5000 to 10000:
PotEng KinEng TotEng Temp Press Volume
-4.87961e+06 36675 -4.84293e+06 2002.88 72.4928 84633.4
Loop time of 351.979 on 8 procs for 10000 steps with 6144 atoms

# Unfix the previous fix to prepare for the next loop iteration
unfix 1

# Dump settings will be cleared with the unfix command, so we remove it
undump 1

# Next iteration
next temp
jump SELF loop_temperature

velocity all create 2200 87287 loop geom

fix 1 all npt temp 2200 2200 100.0 aniso 1.0 1.0 1000.0
thermo 100
thermo_style custom step pe ke etotal temp press vol

# Output dump
dump 1 all custom 100 dump_2200K.lammpstrj id element x y z vx vy vz
dump_modify 1 element Ce O

# Run the simulation for 10000 steps
run 10000
Ewald initialization ...
  G vector (1/distance) = 0.30854227
  estimated absolute RMS force accuracy = 0.035215918
  estimated relative force accuracy = 0.00010605169
  KSpace vectors: actual max1d max3d = 5756 14 12194
                  kxmax kymax kzmax  = 14 14 14
Generated 0 of 1 mixed pair_coeff terms from geometric mixing rule
Step         PotEng         KinEng         TotEng          Temp          Press          Volume
10000  -4879564.2      40284.456     -4839279.8      2200           629.17256      84697.215
Averages over the last 51 of 101 rows, steps 15000 to 20000:
PotEng KinEng TotEng Temp Press Volume
-4.87539e+06 40420.1 -4.83497e+06 2207.41 -113.252 85097.5
Loop time of 390.183 on 8 procs for 10000 steps with 6144 atoms

# Unfix the previous fix to prepare for the next loop iteration
unfix 1

# Dump settings will be cleared with the unfix command, so we remove it
undump 1

# Next iteration
next temp
jump SELF loop_temperature

velocity all create 2400 87287 loop geom

fix 1 all npt temp 2400 2400 100.0 aniso 1.0 1.0 1000.0
thermo 100
thermo_style custom step pe ke etotal temp press vol

# Output dump
dump 1 all custom 100 dump_2400K.lammpstrj id element x y z vx vy vz
dump_modify 1 element Ce O

# Run the simulation for 10000 steps
run 10000
Ewald initialization ...
  G vector (1/distance) = 0.30852452
  estimated absolute RMS force accuracy = 0.035272479
  estimated relative force accuracy = 0.00010622202
  KSpace vectors: actual max1d max3d = 5784 14 12194
                  kxmax kymax kzmax  = 14 14 14
Generated 0 of 1 mixed pair_coeff terms from geometric mixing rule
Step         PotEng         KinEng         TotEng          Temp          Press          Volume
20000  -4875959        43946.679     -4832012.4      2400           5928.9651      84882.9
Averages over the last 51 of 101 rows, steps 25000 to 30000:
PotEng KinEng TotEng Temp Press Volume
-4.87109e+06 44009.4 -4.82708e+06 2403.42 -40.649 85547.5
Loop time of 351.345 on 8 procs for 10000 steps with 6144 atoms

# Unfix the previous fix to prepare for the next loop iteration
unfix 1

# Dump settings will be cleared with the unfix command, so we remove it
undump 1

# Next iteration
next temp
jump SELF loop_temperature

velocity all create 2600 87287 loop geom

fix 1 all npt temp 2600 2600 100.0 aniso 1.0 1.0 1000.0
thermo 100
thermo_style custom step pe ke etotal temp press vol

# Output dump
dump 1 all custom 100 dump_2600K.lammpstrj id element x y z vx vy vz
dump_modify 1 element Ce O

# Run the simulation for 10000 steps
run 10000
Ewald initialization ...
  G vector (1/distance) = 0.30843988
  estimated absolute RMS force accuracy = 0.035539444
  estimated relative force accuracy = 0.00010702598
  KSpace vectors: actual max1d max3d = 5756 14 12194
                  kxmax kymax kzmax  = 14 14 14
Generated 0 of 1 mixed pair_coeff terms from geometric mixing rule
Step         PotEng         KinEng         TotEng          Temp          Press          Volume
30000  -4870451.8      47608.902     -4822842.9      2600          -1358.8354      85774.071
Averages over the last 51 of 101 rows, steps 35000 to 40000:
PotEng KinEng TotEng Temp Press Volume
-4.86674e+06 47559.4 -4.81918e+06 2597.3 -183.877 86028.7
Loop time of 656.582 on 8 procs for 10000 steps with 6144 atoms

# Unfix the previous fix to prepare for the next loop iteration
unfix 1

# Dump settings will be cleared with the unfix command, so we remove it
undump 1

# Next iteration
next temp
jump SELF loop_temperature

velocity all create 2800 87287 loop geom

fix 1 all npt temp 2800 2800 100.0 aniso 1.0 1.0 1000.0
thermo 100
thermo_style custom step pe ke etotal temp press vol

# Output dump
dump 1 all custom 100 dump_2800K.lammpstrj id element x y z vx vy vz
dump_modify 1 element Ce O

# Run the simulation for 10000 steps
run 10000
Ewald initialization ...
  G vector (1/distance) = 0.30841873
  estimated absolute RMS force accuracy = 0.035612782
  estimated relative force accuracy = 0.00010724683
  KSpace vectors: actual max1d max3d = 5764 14 12194
                  kxmax kymax kzmax  = 14 14 14
Generated 0 of 1 mixed pair_coeff terms from geometric mixing rule
Step         PotEng         KinEng         TotEng          Temp          Press          Volume
40000  -4866816.8      51271.125     -4815545.6      2800           2047.7876      85998.233
Averages over the last 51 of 101 rows, steps 45000 to 50000:
PotEng KinEng TotEng Temp Press Volume
-4.86246e+06 51139.4 -4.81132e+06 2792.81 -134.512 86472.3
Loop time of 342.176 on 8 procs for 10000 steps with 6144 atoms

# Unfix the previous fix to prepare for the next loop iteration
unfix 1

# Dump settings will be cleared with the unfix command, so we remove it
undump 1

# Next iteration
next temp
jump SELF loop_temperature

velocity all create 3000 87287 loop geom

fix 1 all npt temp 3000 3000 100.0 aniso 1.0 1.0 1000.0
thermo 100
thermo_style custom step pe ke etotal temp press vol

# Output dump
dump 1 all custom 100 dump_3000K.lammpstrj id element x y z vx vy vz
dump_modify 1 element Ce O

# Run the simulation for 10000 steps
run 10000
Ewald initialization ...
  G vector (1/distance) = 0.30836445
  estimated absolute RMS force accuracy = 0.035805988
  estimated relative force accuracy = 0.00010782867
  KSpace vectors: actual max1d max3d = 5756 14 12194
                  kxmax kymax kzmax  = 14 14 14
Generated 0 of 1 mixed pair_coeff terms from geometric mixing rule
Step         PotEng         KinEng         TotEng          Temp          Press          Volume
50000  -4862389.5      54933.348     -4807456.2      3000          -604.64194      86575.933
Averages over the last 51 of 101 rows, steps 55000 to 60000:
PotEng KinEng TotEng Temp Press Volume
-4.85771e+06 54981.9 -4.80273e+06 3002.65 144.016 86963.7
Loop time of 341.413 on 8 procs for 10000 steps with 6144 atoms

# Unfix the previous fix to prepare for the next loop iteration
unfix 1

# Dump settings will be cleared with the unfix command, so we remove it
undump 1

# Next iteration
next temp
jump SELF loop_temperature

velocity all create 3200 87287 loop geom

fix 1 all npt temp 3200 3200 100.0 aniso 1.0 1.0 1000.0
thermo 100
thermo_style custom step pe ke etotal temp press vol

# Output dump
dump 1 all custom 100 dump_3200K.lammpstrj id element x y z vx vy vz
dump_modify 1 element Ce O

# Run the simulation for 10000 steps
run 10000
Ewald initialization ...
  G vector (1/distance) = 0.3083209
  estimated absolute RMS force accuracy = 0.035972098
  estimated relative force accuracy = 0.0001083289
  KSpace vectors: actual max1d max3d = 5756 14 12194
                  kxmax kymax kzmax  = 14 14 14
Generated 0 of 1 mixed pair_coeff terms from geometric mixing rule
Step         PotEng         KinEng         TotEng          Temp          Press          Volume
60000  -4857333.6      58595.572     -4798738.1      3200           2774.3483      87042.238
Averages over the last 51 of 101 rows, steps 65000 to 70000:
PotEng KinEng TotEng Temp Press Volume
-4.8534e+06 58609.9 -4.79479e+06 3200.78 -41.2264 87446.4
Loop time of 343.68 on 8 procs for 10000 steps with 6144 atoms

# Unfix the previous fix to prepare for the next loop iteration
unfix 1

# Dump settings will be cleared with the unfix command, so we remove it
undump 1

# Next iteration
next temp
jump SELF loop_temperature

velocity all create 3400 87287 loop geom

fix 1 all npt temp 3400 3400 100.0 aniso 1.0 1.0 1000.0
thermo 100
thermo_style custom step pe ke etotal temp press vol

# Output dump
dump 1 all custom 100 dump_3400K.lammpstrj id element x y z vx vy vz
dump_modify 1 element Ce O

# Run the simulation for 10000 steps
run 10000
Ewald initialization ...
  G vector (1/distance) = 0.30831744
  estimated absolute RMS force accuracy = 0.035987144
  estimated relative force accuracy = 0.00010837422
  KSpace vectors: actual max1d max3d = 5756 14 12194
                  kxmax kymax kzmax  = 14 14 14
Generated 0 of 1 mixed pair_coeff terms from geometric mixing rule
Step         PotEng         KinEng         TotEng          Temp          Press          Volume
70000  -4853009.6      62257.795     -4790751.8      3400           9150.9357      87079.387
Averages over the last 51 of 101 rows, steps 75000 to 80000:
PotEng KinEng TotEng Temp Press Volume
-4.8483e+06 62243.1 -4.78605e+06 3399.2 -88.4774 87987
Loop time of 339.451 on 8 procs for 10000 steps with 6144 atoms

# Unfix the previous fix to prepare for the next loop iteration
unfix 1

# Dump settings will be cleared with the unfix command, so we remove it
undump 1

# Next iteration
next temp
jump SELF loop_temperature

velocity all create 3600 87287 loop geom

fix 1 all npt temp 3600 3600 100.0 aniso 1.0 1.0 1000.0
thermo 100
thermo_style custom step pe ke etotal temp press vol

# Output dump
dump 1 all custom 100 dump_3600K.lammpstrj id element x y z vx vy vz
dump_modify 1 element Ce O

# Run the simulation for 10000 steps
run 10000
Ewald initialization ...
  G vector (1/distance) = 0.30824004
  estimated absolute RMS force accuracy = 0.036311191
  estimated relative force accuracy = 0.00010935007
  KSpace vectors: actual max1d max3d = 5760 14 12194
                  kxmax kymax kzmax  = 14 14 14
Generated 0 of 1 mixed pair_coeff terms from geometric mixing rule
Step         PotEng         KinEng         TotEng          Temp          Press          Volume
80000  -4847490.4      65920.018     -4781570.4      3600           6199.9073      87914.509
Averages over the last 51 of 101 rows, steps 85000 to 90000:
PotEng KinEng TotEng Temp Press Volume
-4.84328e+06 66125.3 -4.77716e+06 3611.21 -267.815 88519.8
Loop time of 342.977 on 8 procs for 10000 steps with 6144 atoms

# Unfix the previous fix to prepare for the next loop iteration
unfix 1

# Dump settings will be cleared with the unfix command, so we remove it
undump 1

# Next iteration
next temp
jump SELF loop_temperature

velocity all create 3800 87287 loop geom

fix 1 all npt temp 3800 3800 100.0 aniso 1.0 1.0 1000.0
thermo 100
thermo_style custom step pe ke etotal temp press vol

# Output dump
dump 1 all custom 100 dump_3800K.lammpstrj id element x y z vx vy vz
dump_modify 1 element Ce O

# Run the simulation for 10000 steps
run 10000
Ewald initialization ...
  G vector (1/distance) = 0.30817608
  estimated absolute RMS force accuracy = 0.036600548
  estimated relative force accuracy = 0.00011022146
  KSpace vectors: actual max1d max3d = 5760 14 12194
                  kxmax kymax kzmax  = 14 14 14
Generated 0 of 1 mixed pair_coeff terms from geometric mixing rule
Step         PotEng         KinEng         TotEng          Temp          Press          Volume
90000  -4842856.7      69582.241     -4773274.5      3800           3672.8565      88610.418
Averages over the last 51 of 101 rows, steps 95000 to 100000:
PotEng KinEng TotEng Temp Press Volume
-4.83718e+06 69572.7 -4.7676e+06 3799.48 -82.9389 89128.9
Loop time of 341.54 on 8 procs for 10000 steps with 6144 atoms

# Unfix the previous fix to prepare for the next loop iteration
unfix 1

# Dump settings will be cleared with the unfix command, so we remove it
undump 1

# Next iteration
next temp
jump SELF loop_temperature

velocity all create 4000 87287 loop geom

fix 1 all npt temp 4000 4000 100.0 aniso 1.0 1.0 1000.0
thermo 100
thermo_style custom step pe ke etotal temp press vol

# Output dump
dump 1 all custom 100 dump_4000K.lammpstrj id element x y z vx vy vz
dump_modify 1 element Ce O

# Run the simulation for 10000 steps
run 10000
Ewald initialization ...
  G vector (1/distance) = 0.3081301
  estimated absolute RMS force accuracy = 0.036826188
  estimated relative force accuracy = 0.00011090097
  KSpace vectors: actual max1d max3d = 5768 14 12194
                  kxmax kymax kzmax  = 14 14 14
Generated 0 of 1 mixed pair_coeff terms from geometric mixing rule
Step         PotEng         KinEng         TotEng          Temp          Press          Volume
100000  -4836088.9      73244.465     -4762844.4      4000           1858.3021      89114.1
Averages over the last 12 of 24 rows, steps 101200 to 102300:
PotEng KinEng TotEng Temp Press Volume
-4.83141e+06 72956.1 -4.75845e+06 3984.25 381.673 89718.4
