LAMMPS (28 Mar 2023 - Update 1)
# LAMMPS input script using real units

units real
atom_style charge
boundary p p p

# Create lattice (Note: Adjust the lattice parameters as necessary)
lattice custom 5.411 basis 0.00 0.00 0.00                      basis 0.00 0.50 0.50                      basis 0.50 0.00 0.50                      basis 0.50 0.50 0.00                      basis 0.25 0.75 0.75                      basis 0.75 0.25 0.25                      basis 0.25 0.25 0.25                      basis 0.75 0.75 0.75                      basis 0.75 0.75 0.25                      basis 0.25 0.25 0.75                      basis 0.75 0.25 0.75                      basis 0.25 0.75 0.25
Lattice spacing in x,y,z = 5.411 5.411 5.411
region box block 0 12 0 12 0 12
create_box 2 box
Created orthogonal box = (0 0 0) to (64.932 64.932 64.932)
create_atoms 1 box basis 1 1 basis 2 1 basis 3 1 basis 4 1                    basis 5 2 basis 6 2 basis 7 2 basis 8 2 basis 9 2 basis 10 2 basis 11 2 basis 12 2
Created 20736 atoms

# Mass of Ce and O in atomic units
mass 1 140.116   # Cerium
mass 2 15.999    # Oxygen

# Set charges for the atom types
set type 1 charge 4.0   # Charge for Cerium (Ce)
Setting atom values ...
  6912 settings made for charge
set type 2 charge -2.0  # Charge for Oxygen (O)
Setting atom values ...
  13824 settings made for charge

# Naming atom types for OVITO visualization
group Ce type 1
6912 atoms in group Ce
group O type 2
13824 atoms in group O

# Dump the initial configuration
dump init all custom 1 initial_config.lammpstrj id element x y z vx vy vz
dump_modify init element Ce O first yes
run 0
Step          Temp          E_pair         E_mol          TotEng         Press
0   0              0              0              0              0
Loop time of 2.83825e-06 on 8 procs for 0 steps with 20736 atoms

undump init

# Stop LAMMPS after generating the initial dump file for debugging
# quit

# Buckingham potential with Coulombic term
pair_style buck/coul/long 10.0
pair_coeff 1 1 0.0 1.0 0.0
pair_coeff 1 2 27127.1511 0.3810 0.0
pair_coeff 2 2 524856.597 0.1490 643.164436

# I converted these to kcal/mol above, but the original values are below
# pair_coeff 1 2 11.350e4 0.3810 0.0
# pair_coeff 2 2 21.960e5 0.1490 2.691e3

# pair_coeff 1 1 A1 B1 C1
# pair_coeff 1 2 A12 B12 C12
# pair_coeff 2 2 A2 B2 C2

# Note: The parameters A, B, and C need to be provided for Ce-Ce, Ce-O, and O-O interactions.
# A = repulsive potential coefficient
# B = repulsive potential exponent
# C = van der Waals interaction coefficient
# Replace A1, B1, C1, A12, B12, C12, A2, B2, and C2 with their respective values.

kspace_style ewald 1.0e-4

# Timestep of 1 fs (since we are using real units)
timestep 1.0

# Loop over temperatures from 2000 K to 4000 K in increments of 200 K
variable temp index 2000 2200 2400 2600 2800 3000 3200 3400 3600 3800 4000
label loop_temperature

velocity all create 2000 87287 loop geom

fix 1 all npt temp 2000 2000 100.0 aniso 1.0 1.0 1000.0
thermo 100
thermo_style custom step pe ke etotal temp press vol

# Output dump
dump 1 all custom 100 dump_2000K.lammpstrj id element x y z vx vy vz
dump_modify 1 element Ce O

# Run the simulation for 10000 steps
run 10000
Ewald initialization ...
  G vector (1/distance) = 0.3088922
  estimated absolute RMS force accuracy = 0.04163772
  estimated relative force accuracy = 0.00012539076
  KSpace vectors: actual max1d max3d = 16700 20 34460
                  kxmax kymax kzmax  = 20 20 20
Generated 0 of 1 mixed pair_coeff terms from geometric mixing rule
Step         PotEng         KinEng         TotEng          Temp          Press          Volume
0  -16602012       123614.19     -16478397       2000           3790.267       273764
Averages over the last 51 of 101 rows, steps 5000 to 10000:
PotEng KinEng TotEng Temp Press Volume
-1.64689e+07 123555 -1.63453e+07 1999.04 79.6919 285685
Loop time of 10089.5 on 8 procs for 10000 steps with 20736 atoms

# Unfix the previous fix to prepare for the next loop iteration
unfix 1

# Dump settings will be cleared with the unfix command, so we remove it
undump 1

# Next iteration
next temp
jump SELF loop_temperature

velocity all create 2200 87287 loop geom

fix 1 all npt temp 2200 2200 100.0 aniso 1.0 1.0 1000.0
thermo 100
thermo_style custom step pe ke etotal temp press vol

# Output dump
dump 1 all custom 100 dump_2200K.lammpstrj id element x y z vx vy vz
dump_modify 1 element Ce O

# Run the simulation for 10000 steps
run 10000
Ewald initialization ...
  G vector (1/distance) = 0.30855462
  estimated absolute RMS force accuracy = 0.04591782
  estimated relative force accuracy = 0.00013828015
  KSpace vectors: actual max1d max3d = 16700 20 34460
                  kxmax kymax kzmax  = 20 20 20
Generated 0 of 1 mixed pair_coeff terms from geometric mixing rule
Step         PotEng         KinEng         TotEng          Temp          Press          Volume
10000  -16468252       135975.61     -16332276       2200           4036.7354      285417.76
Averages over the last 51 of 101 rows, steps 15000 to 20000:
PotEng KinEng TotEng Temp Press Volume
-1.64544e+07 136091 -1.63183e+07 2201.86 42.0763 287198
Loop time of 43360.6 on 8 procs for 10000 steps with 20736 atoms

# Unfix the previous fix to prepare for the next loop iteration
unfix 1

# Dump settings will be cleared with the unfix command, so we remove it
undump 1

# Next iteration
next temp
jump SELF loop_temperature

velocity all create 2400 87287 loop geom

fix 1 all npt temp 2400 2400 100.0 aniso 1.0 1.0 1000.0
thermo 100
thermo_style custom step pe ke etotal temp press vol

# Output dump
dump 1 all custom 100 dump_2400K.lammpstrj id element x y z vx vy vz
dump_modify 1 element Ce O

# Run the simulation for 10000 steps
run 10000
Ewald initialization ...
  G vector (1/distance) = 0.30849933
  estimated absolute RMS force accuracy = 0.043172374
  estimated relative force accuracy = 0.00013001232
  KSpace vectors: actual max1d max3d = 19301 21 39753
                  kxmax kymax kzmax  = 20 21 20
Generated 0 of 1 mixed pair_coeff terms from geometric mixing rule
Step         PotEng         KinEng         TotEng          Temp          Press          Volume
20000  -16454053       148337.03     -16305716       2400           325.84989      287371.91
Averages over the last 51 of 101 rows, steps 25000 to 30000:
PotEng KinEng TotEng Temp Press Volume
-1.64398e+07 148405 -1.62914e+07 2401.1 -44.1881 288735
Loop time of 18939.9 on 8 procs for 10000 steps with 20736 atoms

# Unfix the previous fix to prepare for the next loop iteration
unfix 1

# Dump settings will be cleared with the unfix command, so we remove it
undump 1

# Next iteration
next temp
jump SELF loop_temperature

velocity all create 2600 87287 loop geom

fix 1 all npt temp 2600 2600 100.0 aniso 1.0 1.0 1000.0
thermo 100
thermo_style custom step pe ke etotal temp press vol

# Output dump
dump 1 all custom 100 dump_2600K.lammpstrj id element x y z vx vy vz
dump_modify 1 element Ce O

# Run the simulation for 10000 steps
run 10000
Ewald initialization ...
  G vector (1/distance) = 0.30846824
  estimated absolute RMS force accuracy = 0.035444245
  estimated relative force accuracy = 0.00010673929
  KSpace vectors: actual max1d max3d = 19455 21 39753
                  kxmax kymax kzmax  = 21 21 21
Generated 0 of 1 mixed pair_coeff terms from geometric mixing rule
Step         PotEng         KinEng         TotEng          Temp          Press          Volume
30000  -16440242       160698.45     -16279543       2600           3342.614       288476.46
Averages over the last 51 of 101 rows, steps 35000 to 40000:
PotEng KinEng TotEng Temp Press Volume
-1.64256e+07 160510 -1.62651e+07 2596.94 151.437 290273
Loop time of 3867.38 on 8 procs for 10000 steps with 20736 atoms

# Unfix the previous fix to prepare for the next loop iteration
unfix 1

# Dump settings will be cleared with the unfix command, so we remove it
undump 1

# Next iteration
next temp
jump SELF loop_temperature

velocity all create 2800 87287 loop geom

fix 1 all npt temp 2800 2800 100.0 aniso 1.0 1.0 1000.0
thermo 100
thermo_style custom step pe ke etotal temp press vol

# Output dump
dump 1 all custom 100 dump_2800K.lammpstrj id element x y z vx vy vz
dump_modify 1 element Ce O

# Run the simulation for 10000 steps
run 10000
Ewald initialization ...
  G vector (1/distance) = 0.30840361
  estimated absolute RMS force accuracy = 0.035663491
  estimated relative force accuracy = 0.00010739954
  KSpace vectors: actual max1d max3d = 19455 21 39753
                  kxmax kymax kzmax  = 21 21 21
Generated 0 of 1 mixed pair_coeff terms from geometric mixing rule
Step         PotEng         KinEng         TotEng          Temp          Press          Volume
40000  -16423643       173059.87     -16250583       2800           818.68536      290786.02
Averages over the last 51 of 101 rows, steps 45000 to 50000:
PotEng KinEng TotEng Temp Press Volume
-1.64104e+07 173121 -1.62373e+07 2800.99 16.7219 291873
Loop time of 3630.02 on 8 procs for 10000 steps with 20736 atoms

# Unfix the previous fix to prepare for the next loop iteration
unfix 1

# Dump settings will be cleared with the unfix command, so we remove it
undump 1

# Next iteration
next temp
jump SELF loop_temperature

velocity all create 3000 87287 loop geom

fix 1 all npt temp 3000 3000 100.0 aniso 1.0 1.0 1000.0
thermo 100
thermo_style custom step pe ke etotal temp press vol

# Output dump
dump 1 all custom 100 dump_3000K.lammpstrj id element x y z vx vy vz
dump_modify 1 element Ce O

# Run the simulation for 10000 steps
run 10000
Ewald initialization ...
  G vector (1/distance) = 0.30837585
  estimated absolute RMS force accuracy = 0.035763265
  estimated relative force accuracy = 0.00010770001
  KSpace vectors: actual max1d max3d = 19455 21 39753
                  kxmax kymax kzmax  = 21 21 21
Generated 0 of 1 mixed pair_coeff terms from geometric mixing rule
Step         PotEng         KinEng         TotEng          Temp          Press          Volume
50000  -16408342       185421.29     -16222921       3000           3129.6681      291783.26
Averages over the last 51 of 101 rows, steps 55000 to 60000:
PotEng KinEng TotEng Temp Press Volume
-1.63952e+07 185155 -1.62101e+07 2995.69 47.2518 293473
Loop time of 4444.71 on 8 procs for 10000 steps with 20736 atoms

# Unfix the previous fix to prepare for the next loop iteration
unfix 1

# Dump settings will be cleared with the unfix command, so we remove it
undump 1

# Next iteration
next temp
jump SELF loop_temperature

velocity all create 3200 87287 loop geom

fix 1 all npt temp 3200 3200 100.0 aniso 1.0 1.0 1000.0
thermo 100
thermo_style custom step pe ke etotal temp press vol

# Output dump
dump 1 all custom 100 dump_3200K.lammpstrj id element x y z vx vy vz
dump_modify 1 element Ce O

# Run the simulation for 10000 steps
run 10000
Ewald initialization ...
  G vector (1/distance) = 0.30833082
  estimated absolute RMS force accuracy = 0.035934281
  estimated relative force accuracy = 0.00010821502
  KSpace vectors: actual max1d max3d = 19477 21 39753
                  kxmax kymax kzmax  = 21 21 21
Generated 0 of 1 mixed pair_coeff terms from geometric mixing rule
Step         PotEng         KinEng         TotEng          Temp          Press          Volume
60000  -16397191       197782.71     -16199408       3200           2135.5969      293408.35
Averages over the last 51 of 101 rows, steps 65000 to 70000:
PotEng KinEng TotEng Temp Press Volume
-1.63793e+07 197894 -1.61814e+07 3201.8 43.877 295190
Loop time of 3589.08 on 8 procs for 10000 steps with 20736 atoms

# Unfix the previous fix to prepare for the next loop iteration
unfix 1

# Dump settings will be cleared with the unfix command, so we remove it
undump 1

# Next iteration
next temp
jump SELF loop_temperature

velocity all create 3400 87287 loop geom

fix 1 all npt temp 3400 3400 100.0 aniso 1.0 1.0 1000.0
thermo 100
thermo_style custom step pe ke etotal temp press vol

# Output dump
dump 1 all custom 100 dump_3400K.lammpstrj id element x y z vx vy vz
dump_modify 1 element Ce O

# Run the simulation for 10000 steps
run 10000
Ewald initialization ...
  G vector (1/distance) = 0.3082823
  estimated absolute RMS force accuracy = 0.036128031
  estimated relative force accuracy = 0.00010879849
  KSpace vectors: actual max1d max3d = 19461 21 39753
                  kxmax kymax kzmax  = 21 21 21
Generated 0 of 1 mixed pair_coeff terms from geometric mixing rule
Step         PotEng         KinEng         TotEng          Temp          Press          Volume
70000  -16377627       210144.13     -16167483       3400           3571.3336      295169.2
Averages over the last 51 of 101 rows, steps 75000 to 80000:
PotEng KinEng TotEng Temp Press Volume
-1.63627e+07 210048 -1.61526e+07 3398.44 -153.083 296976
Loop time of 33011.9 on 8 procs for 10000 steps with 20736 atoms

# Unfix the previous fix to prepare for the next loop iteration
unfix 1

# Dump settings will be cleared with the unfix command, so we remove it
undump 1

# Next iteration
next temp
jump SELF loop_temperature

velocity all create 3600 87287 loop geom

fix 1 all npt temp 3600 3600 100.0 aniso 1.0 1.0 1000.0
thermo 100
thermo_style custom step pe ke etotal temp press vol

# Output dump
dump 1 all custom 100 dump_3600K.lammpstrj id element x y z vx vy vz
dump_modify 1 element Ce O

# Run the simulation for 10000 steps
run 10000
Ewald initialization ...
  G vector (1/distance) = 0.30821827
  estimated absolute RMS force accuracy = 0.036404039
  estimated relative force accuracy = 0.00010962968
  KSpace vectors: actual max1d max3d = 19467 21 39753
                  kxmax kymax kzmax  = 21 21 21
Generated 0 of 1 mixed pair_coeff terms from geometric mixing rule
Step         PotEng         KinEng         TotEng          Temp          Press          Volume
80000  -16361127       222505.55     -16138622       3600          -806.28824      297508.9
Averages over the last 51 of 101 rows, steps 85000 to 90000:
PotEng KinEng TotEng Temp Press Volume
-1.63451e+07 222555 -1.61226e+07 3600.8 -204.35 298791
Loop time of 37530.7 on 8 procs for 10000 steps with 20736 atoms

# Unfix the previous fix to prepare for the next loop iteration
unfix 1

# Dump settings will be cleared with the unfix command, so we remove it
undump 1

# Next iteration
next temp
jump SELF loop_temperature

velocity all create 3800 87287 loop geom

fix 1 all npt temp 3800 3800 100.0 aniso 1.0 1.0 1000.0
thermo 100
thermo_style custom step pe ke etotal temp press vol

# Output dump
dump 1 all custom 100 dump_3800K.lammpstrj id element x y z vx vy vz
dump_modify 1 element Ce O

# Run the simulation for 10000 steps
run 10000
Ewald initialization ...
  G vector (1/distance) = 0.30817547
  estimated absolute RMS force accuracy = 0.03660057
  estimated relative force accuracy = 0.00011022153
  KSpace vectors: actual max1d max3d = 19455 21 39753
                  kxmax kymax kzmax  = 21 21 21
Generated 0 of 1 mixed pair_coeff terms from geometric mixing rule
Step         PotEng         KinEng         TotEng          Temp          Press          Volume
90000  -16343825       234866.97     -16108958       3800           1573.133       299082.64
Averages over the last 51 of 101 rows, steps 95000 to 100000:
PotEng KinEng TotEng Temp Press Volume
-1.63256e+07 235068 -1.60906e+07 3803.25 205.421 300847
Loop time of 9401.02 on 8 procs for 10000 steps with 20736 atoms

# Unfix the previous fix to prepare for the next loop iteration
unfix 1

# Dump settings will be cleared with the unfix command, so we remove it
undump 1

# Next iteration
next temp
jump SELF loop_temperature

velocity all create 4000 87287 loop geom

fix 1 all npt temp 4000 4000 100.0 aniso 1.0 1.0 1000.0
thermo 100
thermo_style custom step pe ke etotal temp press vol

# Output dump
dump 1 all custom 100 dump_4000K.lammpstrj id element x y z vx vy vz
dump_modify 1 element Ce O

# Run the simulation for 10000 steps
run 10000
Ewald initialization ...
  G vector (1/distance) = 0.30814463
  estimated absolute RMS force accuracy = 0.036750699
  estimated relative force accuracy = 0.00011067364
  KSpace vectors: actual max1d max3d = 19483 21 39753
                  kxmax kymax kzmax  = 21 21 21
Generated 0 of 1 mixed pair_coeff terms from geometric mixing rule
Step         PotEng         KinEng         TotEng          Temp          Press          Volume
100000  -16327829       247228.39     -16080601       4000           4998.1073      300221.87
Averages over the last 51 of 101 rows, steps 105000 to 110000:
PotEng KinEng TotEng Temp Press Volume
-1.63067e+07 247228 -1.60595e+07 3999.99 83.5884 302803
Loop time of 14651.9 on 8 procs for 10000 steps with 20736 atoms

# Unfix the previous fix to prepare for the next loop iteration
unfix 1

# Dump settings will be cleared with the unfix command, so we remove it
undump 1

# Next iteration
next temp
jump SELF loop_temperature
